*SPEF "ieee 1481-1999"
*DESIGN "user_proj_example"
*DATE "11:11:11 Fri 11 11, 1111"
*VENDOR "OpenRCX"
*PROGRAM "Parallel Extraction"
*VERSION "1.0"
*DESIGN_FLOW "NAME_SCOPE LOCAL" "PIN_CAP NONE"
*DIVIDER /
*DELIMITER :
*BUS_DELIMITER []
*T_UNIT 1 NS
*C_UNIT 1 PF
*R_UNIT 1 OHM
*L_UNIT 1 HENRY

*NAME_MAP
*1 io_in[0]
*2 io_in[10]
*3 io_in[11]
*4 io_in[12]
*5 io_in[13]
*6 io_in[14]
*7 io_in[15]
*8 io_in[16]
*9 io_in[17]
*10 io_in[18]
*11 io_in[19]
*12 io_in[1]
*13 io_in[20]
*14 io_in[21]
*15 io_in[22]
*16 io_in[23]
*17 io_in[24]
*18 io_in[25]
*19 io_in[26]
*20 io_in[27]
*21 io_in[28]
*22 io_in[29]
*23 io_in[2]
*24 io_in[30]
*25 io_in[31]
*26 io_in[32]
*27 io_in[33]
*28 io_in[34]
*29 io_in[35]
*30 io_in[36]
*31 io_in[37]
*32 io_in[3]
*33 io_in[4]
*34 io_in[5]
*35 io_in[6]
*36 io_in[7]
*37 io_in[8]
*38 io_in[9]
*39 io_oeb[0]
*40 io_oeb[10]
*41 io_oeb[11]
*42 io_oeb[12]
*43 io_oeb[13]
*44 io_oeb[14]
*45 io_oeb[15]
*46 io_oeb[16]
*47 io_oeb[17]
*48 io_oeb[18]
*49 io_oeb[19]
*50 io_oeb[1]
*51 io_oeb[20]
*52 io_oeb[21]
*53 io_oeb[22]
*54 io_oeb[23]
*55 io_oeb[24]
*56 io_oeb[25]
*57 io_oeb[26]
*58 io_oeb[27]
*59 io_oeb[28]
*60 io_oeb[29]
*61 io_oeb[2]
*62 io_oeb[30]
*63 io_oeb[31]
*64 io_oeb[32]
*65 io_oeb[33]
*66 io_oeb[34]
*67 io_oeb[35]
*68 io_oeb[36]
*69 net270
*70 io_oeb[3]
*71 io_oeb[4]
*72 io_oeb[5]
*73 io_oeb[6]
*74 io_oeb[7]
*75 io_oeb[8]
*76 io_oeb[9]
*77 io_out[0]
*78 io_out[10]
*79 io_out[11]
*80 io_out[12]
*81 io_out[13]
*82 io_out[14]
*83 io_out[15]
*84 io_out[16]
*85 io_out[17]
*86 io_out[18]
*87 io_out[19]
*88 io_out[1]
*89 io_out[20]
*90 io_out[21]
*91 io_out[22]
*92 io_out[23]
*93 io_out[24]
*94 io_out[25]
*95 io_out[26]
*96 io_out[27]
*97 io_out[28]
*98 io_out[29]
*99 io_out[2]
*100 io_out[30]
*101 io_out[31]
*102 net271
*103 net272
*104 net273
*105 net274
*106 net275
*107 net276
*108 io_out[3]
*109 io_out[4]
*110 io_out[5]
*111 io_out[6]
*112 io_out[7]
*113 io_out[8]
*114 io_out[9]
*115 net277
*116 net278
*117 net279
*118 la_data_in[0]
*119 la_data_in[100]
*120 la_data_in[101]
*121 la_data_in[102]
*122 la_data_in[103]
*123 la_data_in[104]
*124 la_data_in[105]
*125 la_data_in[106]
*126 la_data_in[107]
*127 la_data_in[108]
*128 la_data_in[109]
*129 la_data_in[10]
*130 la_data_in[110]
*131 la_data_in[111]
*132 la_data_in[112]
*133 la_data_in[113]
*134 la_data_in[114]
*135 la_data_in[115]
*136 la_data_in[116]
*137 la_data_in[117]
*138 la_data_in[118]
*139 la_data_in[119]
*140 la_data_in[11]
*141 la_data_in[120]
*142 la_data_in[121]
*143 la_data_in[122]
*144 la_data_in[123]
*145 la_data_in[124]
*146 la_data_in[125]
*147 la_data_in[126]
*148 la_data_in[127]
*149 la_data_in[12]
*150 la_data_in[13]
*151 la_data_in[14]
*152 la_data_in[15]
*153 la_data_in[16]
*154 la_data_in[17]
*155 la_data_in[18]
*156 la_data_in[19]
*157 la_data_in[1]
*158 la_data_in[20]
*159 la_data_in[21]
*160 la_data_in[22]
*161 la_data_in[23]
*162 la_data_in[24]
*163 la_data_in[25]
*164 la_data_in[26]
*165 la_data_in[27]
*166 la_data_in[28]
*167 la_data_in[29]
*168 la_data_in[2]
*169 la_data_in[30]
*170 la_data_in[31]
*171 la_data_in[32]
*172 la_data_in[33]
*173 la_data_in[34]
*174 la_data_in[35]
*175 la_data_in[36]
*176 la_data_in[37]
*177 la_data_in[38]
*178 la_data_in[39]
*179 la_data_in[3]
*180 la_data_in[40]
*181 la_data_in[41]
*182 la_data_in[42]
*183 la_data_in[43]
*184 la_data_in[44]
*185 la_data_in[45]
*186 la_data_in[46]
*187 la_data_in[47]
*188 la_data_in[48]
*189 la_data_in[49]
*190 la_data_in[4]
*191 la_data_in[50]
*192 la_data_in[51]
*193 la_data_in[52]
*194 la_data_in[53]
*195 la_data_in[54]
*196 la_data_in[55]
*197 la_data_in[56]
*198 la_data_in[57]
*199 la_data_in[58]
*200 la_data_in[59]
*201 la_data_in[5]
*202 la_data_in[60]
*203 la_data_in[61]
*204 la_data_in[62]
*205 la_data_in[63]
*206 la_data_in[64]
*207 la_data_in[65]
*208 la_data_in[66]
*209 la_data_in[67]
*210 la_data_in[68]
*211 la_data_in[69]
*212 la_data_in[6]
*213 la_data_in[70]
*214 la_data_in[71]
*215 la_data_in[72]
*216 la_data_in[73]
*217 la_data_in[74]
*218 la_data_in[75]
*219 la_data_in[76]
*220 la_data_in[77]
*221 la_data_in[78]
*222 la_data_in[79]
*223 la_data_in[7]
*224 la_data_in[80]
*225 la_data_in[81]
*226 la_data_in[82]
*227 la_data_in[83]
*228 la_data_in[84]
*229 la_data_in[85]
*230 la_data_in[86]
*231 la_data_in[87]
*232 la_data_in[88]
*233 la_data_in[89]
*234 la_data_in[8]
*235 la_data_in[90]
*236 la_data_in[91]
*237 la_data_in[92]
*238 la_data_in[93]
*239 la_data_in[94]
*240 la_data_in[95]
*241 la_data_in[96]
*242 la_data_in[97]
*243 la_data_in[98]
*244 la_data_in[99]
*245 la_data_in[9]
*246 la_data_out[0]
*247 net348
*248 net349
*249 net350
*250 net351
*251 net352
*252 net353
*253 net354
*254 net355
*255 net356
*256 net357
*257 la_data_out[10]
*258 net358
*259 net359
*260 net360
*261 net361
*262 net362
*263 net363
*264 net364
*265 net365
*266 net366
*267 net367
*268 la_data_out[11]
*269 net368
*270 net369
*271 net370
*272 net371
*273 net372
*274 net373
*275 net374
*276 net375
*277 la_data_out[12]
*278 la_data_out[13]
*279 la_data_out[14]
*280 la_data_out[15]
*281 la_data_out[16]
*282 la_data_out[17]
*283 la_data_out[18]
*284 la_data_out[19]
*285 la_data_out[1]
*286 la_data_out[20]
*287 la_data_out[21]
*288 la_data_out[22]
*289 la_data_out[23]
*290 la_data_out[24]
*291 la_data_out[25]
*292 la_data_out[26]
*293 la_data_out[27]
*294 la_data_out[28]
*295 la_data_out[29]
*296 la_data_out[2]
*297 la_data_out[30]
*298 la_data_out[31]
*299 net280
*300 net281
*301 net282
*302 net283
*303 net284
*304 net285
*305 net286
*306 net287
*307 la_data_out[3]
*308 net288
*309 net289
*310 net290
*311 net291
*312 net292
*313 net293
*314 net294
*315 net295
*316 net296
*317 net297
*318 la_data_out[4]
*319 net298
*320 net299
*321 net300
*322 net301
*323 net302
*324 net303
*325 net304
*326 net305
*327 net306
*328 net307
*329 la_data_out[5]
*330 net308
*331 net309
*332 net310
*333 net311
*334 net312
*335 net313
*336 net314
*337 net315
*338 net316
*339 net317
*340 la_data_out[6]
*341 net318
*342 net319
*343 net320
*344 net321
*345 net322
*346 net323
*347 net324
*348 net325
*349 net326
*350 net327
*351 la_data_out[7]
*352 net328
*353 net329
*354 net330
*355 net331
*356 net332
*357 net333
*358 net334
*359 net335
*360 net336
*361 net337
*362 la_data_out[8]
*363 net338
*364 net339
*365 net340
*366 net341
*367 net342
*368 net343
*369 net344
*370 net345
*371 net346
*372 net347
*373 la_data_out[9]
*374 la_oenb[0]
*375 la_oenb[100]
*376 la_oenb[101]
*377 la_oenb[102]
*378 la_oenb[103]
*379 la_oenb[104]
*380 la_oenb[105]
*381 la_oenb[106]
*382 la_oenb[107]
*383 la_oenb[108]
*384 la_oenb[109]
*385 la_oenb[10]
*386 la_oenb[110]
*387 la_oenb[111]
*388 la_oenb[112]
*389 la_oenb[113]
*390 la_oenb[114]
*391 la_oenb[115]
*392 la_oenb[116]
*393 la_oenb[117]
*394 la_oenb[118]
*395 la_oenb[119]
*396 la_oenb[11]
*397 la_oenb[120]
*398 la_oenb[121]
*399 la_oenb[122]
*400 la_oenb[123]
*401 la_oenb[124]
*402 la_oenb[125]
*403 la_oenb[126]
*404 la_oenb[127]
*405 la_oenb[12]
*406 la_oenb[13]
*407 la_oenb[14]
*408 la_oenb[15]
*409 la_oenb[16]
*410 la_oenb[17]
*411 la_oenb[18]
*412 la_oenb[19]
*413 la_oenb[1]
*414 la_oenb[20]
*415 la_oenb[21]
*416 la_oenb[22]
*417 la_oenb[23]
*418 la_oenb[24]
*419 la_oenb[25]
*420 la_oenb[26]
*421 la_oenb[27]
*422 la_oenb[28]
*423 la_oenb[29]
*424 la_oenb[2]
*425 la_oenb[30]
*426 la_oenb[31]
*427 la_oenb[32]
*428 la_oenb[33]
*429 la_oenb[34]
*430 la_oenb[35]
*431 la_oenb[36]
*432 la_oenb[37]
*433 la_oenb[38]
*434 la_oenb[39]
*435 la_oenb[3]
*436 la_oenb[40]
*437 la_oenb[41]
*438 la_oenb[42]
*439 la_oenb[43]
*440 la_oenb[44]
*441 la_oenb[45]
*442 la_oenb[46]
*443 la_oenb[47]
*444 la_oenb[48]
*445 la_oenb[49]
*446 la_oenb[4]
*447 la_oenb[50]
*448 la_oenb[51]
*449 la_oenb[52]
*450 la_oenb[53]
*451 la_oenb[54]
*452 la_oenb[55]
*453 la_oenb[56]
*454 la_oenb[57]
*455 la_oenb[58]
*456 la_oenb[59]
*457 la_oenb[5]
*458 la_oenb[60]
*459 la_oenb[61]
*460 la_oenb[62]
*461 la_oenb[63]
*462 la_oenb[64]
*463 la_oenb[65]
*464 la_oenb[66]
*465 la_oenb[67]
*466 la_oenb[68]
*467 la_oenb[69]
*468 la_oenb[6]
*469 la_oenb[70]
*470 la_oenb[71]
*471 la_oenb[72]
*472 la_oenb[73]
*473 la_oenb[74]
*474 la_oenb[75]
*475 la_oenb[76]
*476 la_oenb[77]
*477 la_oenb[78]
*478 la_oenb[79]
*479 la_oenb[7]
*480 la_oenb[80]
*481 la_oenb[81]
*482 la_oenb[82]
*483 la_oenb[83]
*484 la_oenb[84]
*485 la_oenb[85]
*486 la_oenb[86]
*487 la_oenb[87]
*488 la_oenb[88]
*489 la_oenb[89]
*490 la_oenb[8]
*491 la_oenb[90]
*492 la_oenb[91]
*493 la_oenb[92]
*494 la_oenb[93]
*495 la_oenb[94]
*496 la_oenb[95]
*497 la_oenb[96]
*498 la_oenb[97]
*499 la_oenb[98]
*500 la_oenb[99]
*501 la_oenb[9]
*504 wb_clk_i
*505 wb_rst_i
*506 wbs_ack_o
*507 wbs_adr_i[0]
*508 wbs_adr_i[10]
*509 wbs_adr_i[11]
*510 wbs_adr_i[12]
*511 wbs_adr_i[13]
*512 wbs_adr_i[14]
*513 wbs_adr_i[15]
*514 wbs_adr_i[16]
*515 wbs_adr_i[17]
*516 wbs_adr_i[18]
*517 wbs_adr_i[19]
*518 wbs_adr_i[1]
*519 wbs_adr_i[20]
*520 wbs_adr_i[21]
*521 wbs_adr_i[22]
*522 wbs_adr_i[23]
*523 wbs_adr_i[24]
*524 wbs_adr_i[25]
*525 wbs_adr_i[26]
*526 wbs_adr_i[27]
*527 wbs_adr_i[28]
*528 wbs_adr_i[29]
*529 wbs_adr_i[2]
*530 wbs_adr_i[30]
*531 wbs_adr_i[31]
*532 wbs_adr_i[3]
*533 wbs_adr_i[4]
*534 wbs_adr_i[5]
*535 wbs_adr_i[6]
*536 wbs_adr_i[7]
*537 wbs_adr_i[8]
*538 wbs_adr_i[9]
*539 wbs_cyc_i
*540 wbs_dat_i[0]
*541 wbs_dat_i[10]
*542 wbs_dat_i[11]
*543 wbs_dat_i[12]
*544 wbs_dat_i[13]
*545 wbs_dat_i[14]
*546 wbs_dat_i[15]
*547 wbs_dat_i[16]
*548 wbs_dat_i[17]
*549 wbs_dat_i[18]
*550 wbs_dat_i[19]
*551 wbs_dat_i[1]
*552 wbs_dat_i[20]
*553 wbs_dat_i[21]
*554 wbs_dat_i[22]
*555 wbs_dat_i[23]
*556 wbs_dat_i[24]
*557 wbs_dat_i[25]
*558 wbs_dat_i[26]
*559 wbs_dat_i[27]
*560 wbs_dat_i[28]
*561 wbs_dat_i[29]
*562 wbs_dat_i[2]
*563 wbs_dat_i[30]
*564 wbs_dat_i[31]
*565 wbs_dat_i[3]
*566 wbs_dat_i[4]
*567 wbs_dat_i[5]
*568 wbs_dat_i[6]
*569 wbs_dat_i[7]
*570 wbs_dat_i[8]
*571 wbs_dat_i[9]
*572 wbs_dat_o[0]
*573 wbs_dat_o[10]
*574 wbs_dat_o[11]
*575 wbs_dat_o[12]
*576 wbs_dat_o[13]
*577 wbs_dat_o[14]
*578 wbs_dat_o[15]
*579 wbs_dat_o[16]
*580 wbs_dat_o[17]
*581 wbs_dat_o[18]
*582 wbs_dat_o[19]
*583 wbs_dat_o[1]
*584 wbs_dat_o[20]
*585 wbs_dat_o[21]
*586 wbs_dat_o[22]
*587 wbs_dat_o[23]
*588 wbs_dat_o[24]
*589 wbs_dat_o[25]
*590 wbs_dat_o[26]
*591 wbs_dat_o[27]
*592 wbs_dat_o[28]
*593 wbs_dat_o[29]
*594 wbs_dat_o[2]
*595 wbs_dat_o[30]
*596 wbs_dat_o[31]
*597 wbs_dat_o[3]
*598 wbs_dat_o[4]
*599 wbs_dat_o[5]
*600 wbs_dat_o[6]
*601 wbs_dat_o[7]
*602 wbs_dat_o[8]
*603 wbs_dat_o[9]
*604 wbs_sel_i[0]
*605 wbs_sel_i[1]
*606 wbs_sel_i[2]
*607 wbs_sel_i[3]
*608 wbs_stb_i
*609 wbs_we_i
*610 _000_
*611 _001_
*612 _002_
*613 _003_
*614 _004_
*615 _005_
*616 _006_
*617 _007_
*618 _008_
*619 _009_
*620 _010_
*621 _011_
*622 _012_
*623 _013_
*624 _014_
*625 _015_
*626 _016_
*627 _017_
*628 _018_
*629 _019_
*630 _020_
*631 _021_
*632 _022_
*633 _023_
*634 _024_
*635 _025_
*636 _026_
*637 _027_
*638 _028_
*639 _029_
*640 _030_
*641 _031_
*642 _032_
*643 _033_
*644 _034_
*645 _035_
*646 _036_
*647 _037_
*648 _038_
*649 _039_
*650 _040_
*651 _041_
*652 _042_
*653 _043_
*654 _044_
*655 _045_
*656 _046_
*657 _047_
*658 _048_
*659 _049_
*660 _050_
*661 _051_
*662 _052_
*663 _053_
*664 _054_
*665 _055_
*666 _056_
*667 _057_
*668 _058_
*669 _059_
*670 _060_
*671 _061_
*672 _062_
*673 _063_
*674 _064_
*675 _065_
*676 _066_
*677 _067_
*678 _068_
*679 _069_
*680 _070_
*681 _071_
*682 _072_
*683 _073_
*684 _074_
*685 _075_
*686 _076_
*687 _077_
*688 _078_
*689 _079_
*690 _080_
*691 _081_
*692 _082_
*693 _083_
*694 _084_
*695 _085_
*696 _086_
*697 _087_
*698 _088_
*699 _089_
*700 _090_
*701 _091_
*702 _092_
*703 _093_
*704 _094_
*705 _095_
*706 _096_
*707 _097_
*708 _098_
*709 _099_
*710 _100_
*711 _101_
*712 _102_
*713 _103_
*714 _104_
*715 _105_
*716 _106_
*717 _107_
*718 _108_
*719 _109_
*720 _110_
*721 _111_
*722 _112_
*723 _113_
*724 _114_
*725 _115_
*726 _116_
*727 _117_
*728 _118_
*729 _119_
*730 _120_
*731 _121_
*732 _122_
*733 _123_
*734 _124_
*735 _125_
*736 _126_
*737 _127_
*738 _128_
*739 _129_
*740 _130_
*741 _131_
*742 _132_
*743 _133_
*744 _134_
*745 _135_
*746 _136_
*747 _137_
*748 _138_
*749 _139_
*750 _140_
*751 _141_
*752 _142_
*753 _143_
*754 _144_
*755 _145_
*756 _146_
*757 _147_
*758 _148_
*759 _149_
*760 _150_
*761 _151_
*762 _152_
*763 _153_
*764 _154_
*765 _155_
*766 _156_
*767 _157_
*768 _158_
*769 _159_
*770 _160_
*771 _161_
*772 _162_
*773 _163_
*774 _164_
*775 _165_
*776 _166_
*777 _167_
*778 _168_
*779 _169_
*780 _170_
*781 _171_
*782 _172_
*783 _173_
*784 _174_
*785 _175_
*786 _176_
*787 _177_
*788 _178_
*789 _179_
*790 _180_
*791 _181_
*792 _182_
*793 _183_
*794 _184_
*795 _185_
*796 _186_
*797 _187_
*798 _188_
*799 _189_
*800 _190_
*801 _191_
*802 _192_
*803 _193_
*804 _194_
*805 _195_
*806 _196_
*807 _197_
*808 _198_
*809 _199_
*810 _200_
*811 _201_
*812 _202_
*813 _203_
*814 _204_
*815 _205_
*816 _206_
*817 _207_
*818 _208_
*819 _209_
*820 _210_
*821 _211_
*822 _212_
*823 _213_
*824 _214_
*825 _215_
*826 _216_
*827 _217_
*828 _218_
*829 _219_
*830 _220_
*831 _221_
*832 _222_
*833 _223_
*834 _224_
*835 _225_
*836 _226_
*837 _227_
*838 _228_
*839 _229_
*840 _230_
*841 _231_
*842 _232_
*843 _233_
*844 _234_
*845 _235_
*846 _236_
*847 _237_
*848 _238_
*849 _239_
*850 _240_
*851 _241_
*852 _242_
*853 _243_
*854 _244_
*855 _245_
*856 _246_
*857 _247_
*858 _248_
*859 _249_
*860 _250_
*861 _251_
*862 _252_
*863 _253_
*864 _254_
*865 _255_
*866 _256_
*867 _257_
*868 _258_
*869 _259_
*870 _260_
*871 _261_
*872 _262_
*873 _263_
*874 _264_
*875 _265_
*876 _266_
*877 _267_
*878 _268_
*879 _269_
*880 _270_
*881 _271_
*882 _272_
*883 _273_
*884 _274_
*885 _275_
*886 _276_
*887 _277_
*888 _278_
*889 _279_
*890 _280_
*891 _281_
*892 _282_
*893 _283_
*894 _284_
*895 _285_
*896 _286_
*897 _287_
*898 _288_
*899 _289_
*900 _290_
*901 _291_
*902 _292_
*903 _293_
*904 _294_
*905 _295_
*906 _296_
*907 _297_
*908 _298_
*909 _299_
*910 _300_
*911 _301_
*912 _302_
*913 _303_
*914 _304_
*915 _305_
*916 _306_
*917 _307_
*918 _308_
*919 _309_
*920 _310_
*921 _311_
*922 _312_
*923 _313_
*924 _314_
*925 _315_
*926 _316_
*927 _317_
*928 _318_
*929 _319_
*930 _320_
*931 _321_
*932 _322_
*933 _323_
*934 _324_
*935 _325_
*936 _326_
*937 _327_
*938 _328_
*939 _329_
*940 _330_
*941 _331_
*942 _332_
*943 _333_
*944 _334_
*945 _335_
*946 _336_
*947 _337_
*948 _338_
*949 _339_
*950 clknet_0_counter\.clk
*951 clknet_1_0_0_counter\.clk
*952 clknet_1_0_1_counter\.clk
*953 clknet_1_1_0_counter\.clk
*954 clknet_1_1_1_counter\.clk
*955 clknet_2_0_0_counter\.clk
*956 clknet_2_1_0_counter\.clk
*957 clknet_2_2_0_counter\.clk
*958 clknet_2_3_0_counter\.clk
*959 clknet_3_0_0_counter\.clk
*960 clknet_3_1_0_counter\.clk
*961 clknet_3_2_0_counter\.clk
*962 clknet_3_3_0_counter\.clk
*963 clknet_3_4_0_counter\.clk
*964 clknet_3_5_0_counter\.clk
*965 clknet_3_6_0_counter\.clk
*966 clknet_3_7_0_counter\.clk
*967 counter\.clk
*968 net1
*969 net10
*970 net100
*971 net101
*972 net102
*973 net103
*974 net104
*975 net105
*976 net106
*977 net107
*978 net108
*979 net109
*980 net11
*981 net110
*982 net111
*983 net112
*984 net113
*985 net114
*986 net115
*987 net116
*988 net117
*989 net118
*990 net119
*991 net12
*992 net120
*993 net121
*994 net122
*995 net123
*996 net124
*997 net125
*998 net126
*999 net127
*1000 net128
*1001 net129
*1002 net13
*1003 net130
*1004 net131
*1005 net132
*1006 net133
*1007 net134
*1008 net135
*1009 net136
*1010 net137
*1011 net138
*1012 net139
*1013 net14
*1014 net140
*1015 net141
*1016 net142
*1017 net143
*1018 net144
*1019 net145
*1020 net146
*1021 net147
*1022 net148
*1023 net149
*1024 net15
*1025 net150
*1026 net151
*1027 net152
*1028 net153
*1029 net154
*1030 net155
*1031 net156
*1032 net157
*1033 net158
*1034 net159
*1035 net16
*1036 net160
*1037 net161
*1038 net162
*1039 net163
*1040 net164
*1041 net165
*1042 net166
*1043 net167
*1044 net168
*1045 net169
*1046 net17
*1047 net170
*1048 net171
*1049 net172
*1050 net173
*1051 net174
*1052 net175
*1053 net176
*1054 net177
*1055 net178
*1056 net179
*1057 net18
*1058 net180
*1059 net181
*1060 net182
*1061 net183
*1062 net184
*1063 net185
*1064 net186
*1065 net187
*1066 net188
*1067 net189
*1068 net19
*1069 net190
*1070 net191
*1071 net192
*1072 net193
*1073 net194
*1074 net195
*1075 net196
*1076 net197
*1077 net198
*1078 net199
*1079 net2
*1080 net20
*1081 net200
*1082 net201
*1083 net202
*1084 net203
*1085 net204
*1086 net205
*1087 net206
*1088 net207
*1089 net208
*1090 net209
*1091 net21
*1092 net210
*1093 net211
*1094 net212
*1095 net213
*1096 net214
*1097 net215
*1098 net216
*1099 net217
*1100 net218
*1101 net219
*1102 net22
*1103 net220
*1104 net221
*1105 net222
*1106 net223
*1107 net224
*1108 net225
*1109 net226
*1110 net227
*1111 net228
*1112 net229
*1113 net23
*1114 net230
*1115 net231
*1116 net232
*1117 net233
*1118 net234
*1119 net235
*1120 net236
*1121 net237
*1122 net238
*1123 net239
*1124 net24
*1125 net240
*1126 net241
*1127 net242
*1128 net243
*1129 net244
*1130 net245
*1131 net246
*1132 net247
*1133 net248
*1134 net249
*1135 net25
*1136 net250
*1137 net251
*1138 net252
*1139 net253
*1140 net254
*1141 net255
*1142 net256
*1143 net257
*1144 net258
*1145 net259
*1146 net26
*1147 net260
*1148 net261
*1149 net262
*1150 net263
*1151 net264
*1152 net265
*1153 net266
*1154 net267
*1155 net268
*1156 net269
*1157 net27
*1158 net28
*1159 net29
*1160 net3
*1161 net30
*1162 net31
*1163 net32
*1164 net33
*1165 net34
*1166 net35
*1167 net36
*1168 net37
*1169 net38
*1170 net39
*1171 net4
*1172 net40
*1173 net41
*1174 net42
*1175 net43
*1176 net44
*1177 net45
*1178 net46
*1179 net47
*1180 net48
*1181 net49
*1182 net5
*1183 net50
*1184 net51
*1185 net52
*1186 net53
*1187 net54
*1188 net55
*1189 net56
*1190 net57
*1191 net58
*1192 net59
*1193 net6
*1194 net60
*1195 net61
*1196 net62
*1197 net63
*1198 net64
*1199 net65
*1200 net66
*1201 net67
*1202 net68
*1203 net69
*1204 net7
*1205 net70
*1206 net71
*1207 net72
*1208 net73
*1209 net74
*1210 net75
*1211 net76
*1212 net77
*1213 net78
*1214 net79
*1215 net8
*1216 net80
*1217 net81
*1218 net82
*1219 net83
*1220 net84
*1221 net85
*1222 net86
*1223 net87
*1224 net88
*1225 net89
*1226 net9
*1227 net90
*1228 net91
*1229 net92
*1230 net93
*1231 net94
*1232 net95
*1233 net96
*1234 net97
*1235 net98
*1236 net99
*1237 ANTENNA__341__A1
*1238 ANTENNA__344__A0
*1239 ANTENNA__344__A1
*1240 ANTENNA__344__S
*1241 ANTENNA__347__B
*1242 ANTENNA__348__A
*1243 ANTENNA__349__B
*1244 ANTENNA__350__A
*1245 ANTENNA__353__A
*1246 ANTENNA__354__A
*1247 ANTENNA__355__A
*1248 ANTENNA__356__B
*1249 ANTENNA__358__A
*1250 ANTENNA__359__A
*1251 ANTENNA__360__A2
*1252 ANTENNA__360__A3
*1253 ANTENNA__360__A4
*1254 ANTENNA__361__A1
*1255 ANTENNA__361__B1
*1256 ANTENNA__362__A2
*1257 ANTENNA__362__A3
*1258 ANTENNA__362__A4
*1259 ANTENNA__362__B1
*1260 ANTENNA__363__A4
*1261 ANTENNA__363__B1
*1262 ANTENNA__365__A1
*1263 ANTENNA__365__A2
*1264 ANTENNA__365__A3
*1265 ANTENNA__365__A4
*1266 ANTENNA__365__B1
*1267 ANTENNA__366__B1
*1268 ANTENNA__367__A1
*1269 ANTENNA__367__A2
*1270 ANTENNA__367__A3
*1271 ANTENNA__367__A4
*1272 ANTENNA__367__B1
*1273 ANTENNA__368__A1
*1274 ANTENNA__368__A2
*1275 ANTENNA__368__A4
*1276 ANTENNA__368__B1
*1277 ANTENNA__369__B
*1278 ANTENNA__370__A_N
*1279 ANTENNA__371__B1
*1280 ANTENNA__372__B
*1281 ANTENNA__373__A
*1282 ANTENNA__374__C
*1283 ANTENNA__375__A2
*1284 ANTENNA__375__B1
*1285 ANTENNA__375__C1
*1286 ANTENNA__376__A
*1287 ANTENNA__378__A
*1288 ANTENNA__379__A
*1289 ANTENNA__380__A
*1290 ANTENNA__382__A
*1291 ANTENNA__382__B
*1292 ANTENNA__384__A
*1293 ANTENNA__385__A
*1294 ANTENNA__386__A
*1295 ANTENNA__387__A
*1296 ANTENNA__388__A2
*1297 ANTENNA__388__B2
*1298 ANTENNA__390__A
*1299 ANTENNA__391__A2
*1300 ANTENNA__392__A
*1301 ANTENNA__393__B1
*1302 ANTENNA__395__A
*1303 ANTENNA__396__A2
*1304 ANTENNA__396__B2
*1305 ANTENNA__397__A2
*1306 ANTENNA__398__A
*1307 ANTENNA__398__B
*1308 ANTENNA__398__C
*1309 ANTENNA__398__D
*1310 ANTENNA__401__A1
*1311 ANTENNA__401__B1
*1312 ANTENNA__403__A
*1313 ANTENNA__404__A2
*1314 ANTENNA__404__B2
*1315 ANTENNA__405__A2
*1316 ANTENNA__406__A
*1317 ANTENNA__409__A
*1318 ANTENNA__410__A2
*1319 ANTENNA__410__B2
*1320 ANTENNA__411__A2
*1321 ANTENNA__412__A
*1322 ANTENNA__414__B1
*1323 ANTENNA__416__A
*1324 ANTENNA__417__A2
*1325 ANTENNA__417__B2
*1326 ANTENNA__418__A2
*1327 ANTENNA__419__A
*1328 ANTENNA__419__B
*1329 ANTENNA__419__C
*1330 ANTENNA__421__A1
*1331 ANTENNA__421__B1
*1332 ANTENNA__422__A
*1333 ANTENNA__423__B
*1334 ANTENNA__424__B1
*1335 ANTENNA__425__A
*1336 ANTENNA__426__A
*1337 ANTENNA__429__A
*1338 ANTENNA__430__A
*1339 ANTENNA__431__A
*1340 ANTENNA__432__A2
*1341 ANTENNA__432__B1
*1342 ANTENNA__432__B2
*1343 ANTENNA__433__A
*1344 ANTENNA__435__A
*1345 ANTENNA__435__B
*1346 ANTENNA__436__A1
*1347 ANTENNA__436__B1
*1348 ANTENNA__437__A
*1349 ANTENNA__438__A
*1350 ANTENNA__438__B
*1351 ANTENNA__438__C
*1352 ANTENNA__439__C
*1353 ANTENNA__440__B2
*1354 ANTENNA__440__C1
*1355 ANTENNA__441__A
*1356 ANTENNA__444__A1
*1357 ANTENNA__444__B1
*1358 ANTENNA__445__A
*1359 ANTENNA__445__B
*1360 ANTENNA__448__A
*1361 ANTENNA__449__A
*1362 ANTENNA__451__A2
*1363 ANTENNA__451__B1
*1364 ANTENNA__451__B2
*1365 ANTENNA__452__A2
*1366 ANTENNA__453__A
*1367 ANTENNA__453__B
*1368 ANTENNA__454__A
*1369 ANTENNA__455__A1
*1370 ANTENNA__455__B1
*1371 ANTENNA__457__B
*1372 ANTENNA__458__B1
*1373 ANTENNA__459__A
*1374 ANTENNA__460__A
*1375 ANTENNA__461__A1
*1376 ANTENNA__461__B1
*1377 ANTENNA__462__A1
*1378 ANTENNA__463__A
*1379 ANTENNA__464__A2
*1380 ANTENNA__464__B1
*1381 ANTENNA__464__B2
*1382 ANTENNA__466__A1
*1383 ANTENNA__466__B1
*1384 ANTENNA__467__A
*1385 ANTENNA__467__B
*1386 ANTENNA__469__C
*1387 ANTENNA__470__A1
*1388 ANTENNA__470__C1
*1389 ANTENNA__471__A
*1390 ANTENNA__473__A
*1391 ANTENNA__473__B
*1392 ANTENNA__473__C
*1393 ANTENNA__473__D
*1394 ANTENNA__475__A1
*1395 ANTENNA__477__A
*1396 ANTENNA__478__A1
*1397 ANTENNA__478__B1
*1398 ANTENNA__479__A
*1399 ANTENNA__480__A
*1400 ANTENNA__481__A1
*1401 ANTENNA__481__A2
*1402 ANTENNA__481__B1
*1403 ANTENNA__482__A1
*1404 ANTENNA__482__A2
*1405 ANTENNA__483__A
*1406 ANTENNA__484__A2
*1407 ANTENNA__484__B1
*1408 ANTENNA__484__B2
*1409 ANTENNA__485__A2
*1410 ANTENNA__486__A
*1411 ANTENNA__486__B
*1412 ANTENNA__486__C
*1413 ANTENNA__488__A1
*1414 ANTENNA__488__A2
*1415 ANTENNA__489__A
*1416 ANTENNA__490__A
*1417 ANTENNA__491__A2
*1418 ANTENNA__491__B1
*1419 ANTENNA__491__B2
*1420 ANTENNA__493__A
*1421 ANTENNA__494__A
*1422 ANTENNA__495__A
*1423 ANTENNA__495__B
*1424 ANTENNA__497__A
*1425 ANTENNA__498__A
*1426 ANTENNA__499__B1
*1427 ANTENNA__500__A1
*1428 ANTENNA__500__B1
*1429 ANTENNA__501__A1
*1430 ANTENNA__502__A1
*1431 ANTENNA__502__B1
*1432 ANTENNA__503__A
*1433 ANTENNA__504__A
*1434 ANTENNA__504__B
*1435 ANTENNA__505__A
*1436 ANTENNA__505__B
*1437 ANTENNA__508__A1
*1438 ANTENNA__510__A
*1439 ANTENNA__511__A3
*1440 ANTENNA__511__B1
*1441 ANTENNA__511__B2
*1442 ANTENNA__512__A
*1443 ANTENNA__513__A2
*1444 ANTENNA__513__B1
*1445 ANTENNA__514__A
*1446 ANTENNA__515__A1
*1447 ANTENNA__516__A1
*1448 ANTENNA__517__A
*1449 ANTENNA__518__A3
*1450 ANTENNA__518__B1
*1451 ANTENNA__518__B2
*1452 ANTENNA__519__A2
*1453 ANTENNA__519__B1
*1454 ANTENNA__520__A
*1455 ANTENNA__520__B
*1456 ANTENNA__522__A1
*1457 ANTENNA__522__B1
*1458 ANTENNA__523__A
*1459 ANTENNA__524__A
*1460 ANTENNA__525__A2
*1461 ANTENNA__525__A3
*1462 ANTENNA__525__B1
*1463 ANTENNA__525__B2
*1464 ANTENNA__526__A2
*1465 ANTENNA__526__B1
*1466 ANTENNA__527__A
*1467 ANTENNA__528__A1
*1468 ANTENNA__531__A3
*1469 ANTENNA__531__B1
*1470 ANTENNA__531__B2
*1471 ANTENNA__532__A2
*1472 ANTENNA__532__B1
*1473 ANTENNA__533__A
*1474 ANTENNA__533__B
*1475 ANTENNA__534__A
*1476 ANTENNA__534__B
*1477 ANTENNA__535__A
*1478 ANTENNA__537__A1
*1479 ANTENNA__539__A3
*1480 ANTENNA__539__B1
*1481 ANTENNA__539__B2
*1482 ANTENNA__540__A2
*1483 ANTENNA__540__B1
*1484 ANTENNA__541__A
*1485 ANTENNA__542__A1
*1486 ANTENNA__543__A1
*1487 ANTENNA__545__A
*1488 ANTENNA__546__B1
*1489 ANTENNA__546__B2
*1490 ANTENNA__547__A
*1491 ANTENNA__549__A
*1492 ANTENNA__549__B
*1493 ANTENNA__551__A1
*1494 ANTENNA__551__B1
*1495 ANTENNA__552__A
*1496 ANTENNA__554__B1
*1497 ANTENNA__554__B2
*1498 ANTENNA__556__A
*1499 ANTENNA__557__B
*1500 ANTENNA__558__B1
*1501 ANTENNA__559__A
*1502 ANTENNA__560__A1
*1503 ANTENNA__560__B1
*1504 ANTENNA__562__A
*1505 ANTENNA__563__A
*1506 ANTENNA__563__B
*1507 ANTENNA__563__C
*1508 ANTENNA__564__A
*1509 ANTENNA__565__B2
*1510 ANTENNA__567__A
*1511 ANTENNA__567__B
*1512 ANTENNA__568__A
*1513 ANTENNA__568__B
*1514 ANTENNA__568__C
*1515 ANTENNA__570__A1
*1516 ANTENNA__570__B1
*1517 ANTENNA__571__A
*1518 ANTENNA__572__B2
*1519 ANTENNA__576__A
*1520 ANTENNA__578__B2
*1521 ANTENNA__580__A
*1522 ANTENNA__581__A_N
*1523 ANTENNA__581__C
*1524 ANTENNA__582__A1
*1525 ANTENNA__582__A2
*1526 ANTENNA__582__B2
*1527 ANTENNA__583__A
*1528 ANTENNA__585__B
*1529 ANTENNA__585__C
*1530 ANTENNA__587__A1
*1531 ANTENNA__587__A2
*1532 ANTENNA__587__B1
*1533 ANTENNA__589__A3
*1534 ANTENNA__589__B1
*1535 ANTENNA__589__B2
*1536 ANTENNA__590__A1
*1537 ANTENNA__593__A
*1538 ANTENNA__595__A1
*1539 ANTENNA__595__B1
*1540 ANTENNA__596__A1
*1541 ANTENNA__598__A3
*1542 ANTENNA__598__B2
*1543 ANTENNA__599__B1
*1544 ANTENNA__600__A_N
*1545 ANTENNA__600__C
*1546 ANTENNA__601__A1
*1547 ANTENNA__601__B1
*1548 ANTENNA__602__A
*1549 ANTENNA__603__A1
*1550 ANTENNA__603__B2
*1551 ANTENNA__604__B1
*1552 ANTENNA__605__A
*1553 ANTENNA__605__C
*1554 ANTENNA__606__A1
*1555 ANTENNA__606__B1
*1556 ANTENNA__607__A
*1557 ANTENNA__608__A3
*1558 ANTENNA__608__B1
*1559 ANTENNA__608__B2
*1560 ANTENNA__609__A1
*1561 ANTENNA__612__A1
*1562 ANTENNA__614__A1
*1563 ANTENNA__616__A0
*1564 ANTENNA__616__A1
*1565 ANTENNA__618__A0
*1566 ANTENNA__618__A1
*1567 ANTENNA__620__A
*1568 ANTENNA__621__A
*1569 ANTENNA__622__A1
*1570 ANTENNA__622__S
*1571 ANTENNA__624__A0
*1572 ANTENNA__624__S
*1573 ANTENNA__626__A0
*1574 ANTENNA__626__A1
*1575 ANTENNA__626__S
*1576 ANTENNA__628__S
*1577 ANTENNA__630__A0
*1578 ANTENNA__630__S
*1579 ANTENNA__632__A
*1580 ANTENNA__633__A0
*1581 ANTENNA__635__A0
*1582 ANTENNA__637__A0
*1583 ANTENNA__639__A0
*1584 ANTENNA__641__A0
*1585 ANTENNA__643__A
*1586 ANTENNA__644__A0
*1587 ANTENNA__644__A1
*1588 ANTENNA__646__A0
*1589 ANTENNA__646__A1
*1590 ANTENNA__648__A0
*1591 ANTENNA__648__A1
*1592 ANTENNA__650__A0
*1593 ANTENNA__650__A1
*1594 ANTENNA__652__A0
*1595 ANTENNA__652__A1
*1596 ANTENNA__654__A
*1597 ANTENNA__655__A0
*1598 ANTENNA__655__A1
*1599 ANTENNA__657__A0
*1600 ANTENNA__657__A1
*1601 ANTENNA__659__A0
*1602 ANTENNA__659__A1
*1603 ANTENNA__661__A0
*1604 ANTENNA__661__A1
*1605 ANTENNA__663__A0
*1606 ANTENNA__663__A1
*1607 ANTENNA__665__A
*1608 ANTENNA__666__A0
*1609 ANTENNA__666__A1
*1610 ANTENNA__666__S
*1611 ANTENNA__668__A0
*1612 ANTENNA__668__A1
*1613 ANTENNA__668__S
*1614 ANTENNA__670__A0
*1615 ANTENNA__670__A1
*1616 ANTENNA__670__S
*1617 ANTENNA__672__A0
*1618 ANTENNA__672__A1
*1619 ANTENNA__672__S
*1620 ANTENNA__674__A0
*1621 ANTENNA__674__A1
*1622 ANTENNA__674__S
*1623 ANTENNA__676__A0
*1624 ANTENNA__676__S
*1625 ANTENNA__678__A0
*1626 ANTENNA__678__A1
*1627 ANTENNA__678__S
*1628 ANTENNA__680__A0
*1629 ANTENNA__680__A1
*1630 ANTENNA__680__S
*1631 ANTENNA__682__CLK
*1632 ANTENNA__683__CLK
*1633 ANTENNA__684__CLK
*1634 ANTENNA__685__CLK
*1635 ANTENNA__686__CLK
*1636 ANTENNA__687__CLK
*1637 ANTENNA__688__CLK
*1638 ANTENNA__689__CLK
*1639 ANTENNA__690__CLK
*1640 ANTENNA__691__CLK
*1641 ANTENNA__692__CLK
*1642 ANTENNA__693__CLK
*1643 ANTENNA__694__CLK
*1644 ANTENNA__695__CLK
*1645 ANTENNA__696__CLK
*1646 ANTENNA__697__CLK
*1647 ANTENNA__698__CLK
*1648 ANTENNA__699__CLK
*1649 ANTENNA__700__CLK
*1650 ANTENNA__701__CLK
*1651 ANTENNA__702__CLK
*1652 ANTENNA__703__CLK
*1653 ANTENNA__704__CLK
*1654 ANTENNA__705__CLK
*1655 ANTENNA__706__CLK
*1656 ANTENNA__707__CLK
*1657 ANTENNA__708__CLK
*1658 ANTENNA__709__CLK
*1659 ANTENNA__710__CLK
*1660 ANTENNA__711__CLK
*1661 ANTENNA__712__CLK
*1662 ANTENNA__713__CLK
*1663 ANTENNA__714__CLK
*1664 ANTENNA__715__CLK
*1665 ANTENNA__716__CLK
*1666 ANTENNA__717__CLK
*1667 ANTENNA__718__CLK
*1668 ANTENNA__719__CLK
*1669 ANTENNA__720__CLK
*1670 ANTENNA__721__CLK
*1671 ANTENNA__722__CLK
*1672 ANTENNA__723__CLK
*1673 ANTENNA__724__CLK
*1674 ANTENNA__725__CLK
*1675 ANTENNA__726__CLK
*1676 ANTENNA__727__CLK
*1677 ANTENNA__728__CLK
*1678 ANTENNA__729__CLK
*1679 ANTENNA__730__CLK
*1680 ANTENNA__731__CLK
*1681 ANTENNA__732__CLK
*1682 ANTENNA__733__CLK
*1683 ANTENNA__734__CLK
*1684 ANTENNA__735__CLK
*1685 ANTENNA__736__CLK
*1686 ANTENNA__737__CLK
*1687 ANTENNA__738__CLK
*1688 ANTENNA__739__CLK
*1689 ANTENNA__740__CLK
*1690 ANTENNA__741__CLK
*1691 ANTENNA__742__CLK
*1692 ANTENNA__743__CLK
*1693 ANTENNA__744__CLK
*1694 ANTENNA__745__CLK
*1695 ANTENNA__746__CLK
*1696 ANTENNA__875__A
*1697 ANTENNA__876__A
*1698 ANTENNA__886__A
*1699 ANTENNA__887__A
*1700 ANTENNA__888__A
*1701 ANTENNA__889__A
*1702 ANTENNA__890__A
*1703 ANTENNA__891__A
*1704 ANTENNA__892__A
*1705 ANTENNA__893__A
*1706 ANTENNA__894__A
*1707 ANTENNA__895__A
*1708 ANTENNA__896__A
*1709 ANTENNA__897__A
*1710 ANTENNA__898__A
*1711 ANTENNA__899__A
*1712 ANTENNA__900__A
*1713 ANTENNA__901__A
*1714 ANTENNA__902__A
*1715 ANTENNA__903__A
*1716 ANTENNA__905__A
*1717 ANTENNA__906__A
*1718 ANTENNA__907__A
*1719 ANTENNA__908__A
*1720 ANTENNA__909__A
*1721 ANTENNA__910__A
*1722 ANTENNA__911__A
*1723 ANTENNA__912__A
*1724 ANTENNA__913__A
*1725 ANTENNA__914__A
*1726 ANTENNA__916__A
*1727 ANTENNA__917__A
*1728 ANTENNA__918__A
*1729 ANTENNA__919__A
*1730 ANTENNA__920__A
*1731 ANTENNA_clkbuf_0_counter\.clk_A
*1732 ANTENNA_clkbuf_1_0_0_counter\.clk_A
*1733 ANTENNA_clkbuf_1_1_0_counter\.clk_A
*1734 ANTENNA_clkbuf_3_0_0_counter\.clk_A
*1735 ANTENNA_clkbuf_3_1_0_counter\.clk_A
*1736 ANTENNA_clkbuf_3_2_0_counter\.clk_A
*1737 ANTENNA_clkbuf_3_3_0_counter\.clk_A
*1738 ANTENNA_clkbuf_3_4_0_counter\.clk_A
*1739 ANTENNA_clkbuf_3_5_0_counter\.clk_A
*1740 ANTENNA_clkbuf_3_6_0_counter\.clk_A
*1741 ANTENNA_clkbuf_3_7_0_counter\.clk_A
*1742 ANTENNA_input100_A
*1743 ANTENNA_input101_A
*1744 ANTENNA_input102_A
*1745 ANTENNA_input103_A
*1746 ANTENNA_input104_A
*1747 ANTENNA_input105_A